Measured thermophysical data. Influence of water content on thermophysical properties of aqueous glyceline solutions predicted by molecular dynamics simulations
Source: Fluid Phase Equilib., 2025, 10.1016/j.fluid.2024.114324
Compound 1: choline, C5H14NO+, InChI=1S/C5H14NO/c1-6(2,3)4-5-7/h7H,4-5H2,1-3H3/q+1
Compound 2: 16887-00-6, Cl-, InChI=1S/ClH/h1H/p-1
Compound 3: glycerol, C3H8O3, InChI=1S/C3H8O3/c4-1-3(6)2-5/h3-6H,1-2H2
Compound 4: water, H2O, InChI=1S/H2O/h1H2
Compound 5: carbon dioxide, CO2, InChI=1S/CO2/c2-1-3
Compound 6: 7782-44-7, O2, InChI=1S/O2/c1-2

System: water; phases: Liquid
Fixed: Mole fraction of water = 1.0
Fixed: Pressure, kPa = 100.0
Property: Mass density, kg/m3 (Liquid); method: N/A
Temperature, K	Mass density, kg/m3	uncertainty
313.15	989.26692	0.132553
323.15	984.23857	0.029222
333.15	978.73098	0.470517
343.15	972.22267	0.368699
353.15	965.13213	0.251989

System: water; phases: Liquid
Fixed: Mole fraction of water = 1.0
Fixed: Pressure, kPa = 100.0
Property: Molar enthalpy, kJ/mol (Liquid); method: N/A
Temperature, K	Molar enthalpy, kJ/mol	uncertainty
313.15	-113162.5134	16.404579
323.15	-110550.96845	7.78308
333.15	-107971.66792	30.769541
343.15	-105389.20995	35.461666
353.15	-102849.66809	34.538222

System: water + choline + 16887-00-6 + glycerol; phases: Liquid
Fixed: Mole fraction of water = 0.9
Fixed: Mole fraction of choline = 0.0165
Fixed: Mole fraction of 16887-00-6 = 0.0165
Fixed: Mole fraction of glycerol = 0.067
Fixed: Pressure, kPa = 100.0
Property: Mass density, kg/m3 (Liquid); method: N/A
Temperature, K	Mass density, kg/m3	uncertainty
313.15	1070.92548	0.051266
323.15	1064.45844	0.074955
333.15	1057.68199	0.045113
343.15	1050.59759	0.089862
353.15	1043.23151	0.096019

System: water + choline + 16887-00-6 + glycerol; phases: Liquid
Fixed: Mole fraction of water = 0.9
Fixed: Mole fraction of choline = 0.0165
Fixed: Mole fraction of 16887-00-6 = 0.0165
Fixed: Mole fraction of glycerol = 0.067
Fixed: Pressure, kPa = 100.0
Property: Molar enthalpy, kJ/mol (Liquid); method: N/A
Temperature, K	Molar enthalpy, kJ/mol	uncertainty
313.15	-310272.16223	10.3309
323.15	-299554.74332	37.445969
333.15	-288909.97105	25.23442
343.15	-278307.98994	33.186888
353.15	-267707.99175	24.365881

System: water + choline + 16887-00-6 + glycerol; phases: Liquid
Fixed: Mole fraction of water = 0.75
Fixed: Mole fraction of choline = 0.0415
Fixed: Mole fraction of 16887-00-6 = 0.0415
Fixed: Mole fraction of glycerol = 0.167
Fixed: Pressure, kPa = 100.0
Property: Mass density, kg/m3 (Liquid); method: N/A
Temperature, K	Mass density, kg/m3	uncertainty
313.15	1127.55261	0.12889
323.15	1120.54683	0.093482
333.15	1113.41862	0.238268
343.15	1106.17594	0.028812
353.15	1098.76805	0.068507

System: water + choline + 16887-00-6 + glycerol; phases: Liquid
Fixed: Mole fraction of water = 0.75
Fixed: Mole fraction of choline = 0.0415
Fixed: Mole fraction of 16887-00-6 = 0.0415
Fixed: Mole fraction of glycerol = 0.167
Fixed: Pressure, kPa = 100.0
Property: Molar enthalpy, kJ/mol (Liquid); method: N/A
Temperature, K	Molar enthalpy, kJ/mol	uncertainty
313.15	-110592.97882	63.181711
323.15	-104427.3024	19.624992
333.15	-98258.75552	35.988704
343.15	-92111.77951	27.928604
353.15	-85942.64791	15.550083

System: water + choline + 16887-00-6 + glycerol; phases: Liquid
Fixed: Mole fraction of water = 0.6
Fixed: Mole fraction of choline = 0.0665
Fixed: Mole fraction of 16887-00-6 = 0.0665
Fixed: Mole fraction of glycerol = 0.267
Fixed: Pressure, kPa = 100.0
Property: Mass density, kg/m3 (Liquid); method: N/A
Temperature, K	Mass density, kg/m3	uncertainty
313.15	1155.42024	0.269147
323.15	1148.36918	0.144839
333.15	1141.13011	0.11942
343.15	1133.86332	0.053428
353.15	1126.56356	0.070836

System: water + choline + 16887-00-6 + glycerol; phases: Liquid
Fixed: Mole fraction of water = 0.6
Fixed: Mole fraction of choline = 0.0665
Fixed: Mole fraction of 16887-00-6 = 0.0665
Fixed: Mole fraction of glycerol = 0.267
Fixed: Pressure, kPa = 100.0
Property: Molar enthalpy, kJ/mol (Liquid); method: N/A
Temperature, K	Molar enthalpy, kJ/mol	uncertainty
313.15	-59217.06973	98.320649
323.15	-54178.00171	32.353558
333.15	-49137.09533	8.940642
343.15	-44144.35066	8.874199
353.15	-39127.35483	22.357866

System: water + choline + 16887-00-6 + glycerol; phases: Liquid
Fixed: Mole fraction of water = 0.5
Fixed: Mole fraction of choline = 0.0835
Fixed: Mole fraction of 16887-00-6 = 0.0835
Fixed: Mole fraction of glycerol = 0.333
Fixed: Pressure, kPa = 100.0
Property: Mass density, kg/m3 (Liquid); method: N/A
Temperature, K	Mass density, kg/m3	uncertainty
313.15	1166.60915	0.118896
323.15	1159.39341	0.20665
333.15	1152.11798	0.217079
343.15	1144.9509	0.218268
353.15	1137.70528	0.206916

System: water + choline + 16887-00-6 + glycerol; phases: Liquid
Fixed: Mole fraction of water = 0.5
Fixed: Mole fraction of choline = 0.0835
Fixed: Mole fraction of 16887-00-6 = 0.0835
Fixed: Mole fraction of glycerol = 0.333
Fixed: Pressure, kPa = 100.0
Property: Molar enthalpy, kJ/mol (Liquid); method: N/A
Temperature, K	Molar enthalpy, kJ/mol	uncertainty
313.15	-41818.39383	28.212671
323.15	-37154.5865	27.970558
333.15	-32492.0178	21.310546
343.15	-27889.45184	49.992345
353.15	-23256.31635	49.193023

System: water + choline + 16887-00-6 + glycerol; phases: Liquid
Fixed: Mole fraction of water = 0.25
Fixed: Mole fraction of choline = 0.125
Fixed: Mole fraction of 16887-00-6 = 0.125
Fixed: Mole fraction of glycerol = 0.5
Fixed: Pressure, kPa = 100.0
Property: Mass density, kg/m3 (Liquid); method: N/A
Temperature, K	Mass density, kg/m3	uncertainty
313.15	1181.06812	0.274281
323.15	1174.06977	0.13948
333.15	1167.09217	0.051849
343.15	1160.12625	0.160311
353.15	1152.90013	0.227819

System: water + choline + 16887-00-6 + glycerol; phases: Liquid
Fixed: Mole fraction of water = 0.25
Fixed: Mole fraction of choline = 0.125
Fixed: Mole fraction of 16887-00-6 = 0.125
Fixed: Mole fraction of glycerol = 0.5
Fixed: Pressure, kPa = 100.0
Property: Molar enthalpy, kJ/mol (Liquid); method: N/A
Temperature, K	Molar enthalpy, kJ/mol	uncertainty
313.15	-18021.31164	52.81197
323.15	-13898.1628	40.798658
333.15	-9814.25288	14.713711
343.15	-5709.54634	29.506805
353.15	-1609.19569	35.059845

System: water + choline + 16887-00-6 + glycerol; phases: Liquid
Fixed: Mole fraction of water = 0.1
Fixed: Mole fraction of choline = 0.15
Fixed: Mole fraction of 16887-00-6 = 0.15
Fixed: Mole fraction of glycerol = 0.6
Fixed: Pressure, kPa = 100.0
Property: Mass density, kg/m3 (Liquid); method: N/A
Temperature, K	Mass density, kg/m3	uncertainty
313.15	1185.41039	0.075711
323.15	1178.32086	0.500542
333.15	1171.40737	0.176534
343.15	1164.37668	0.184903
353.15	1157.47616	0.183181

System: water + choline + 16887-00-6 + glycerol; phases: Liquid
Fixed: Mole fraction of water = 0.1
Fixed: Mole fraction of choline = 0.15
Fixed: Mole fraction of 16887-00-6 = 0.15
Fixed: Mole fraction of glycerol = 0.6
Fixed: Pressure, kPa = 100.0
Property: Molar enthalpy, kJ/mol (Liquid); method: N/A
Temperature, K	Molar enthalpy, kJ/mol	uncertainty
313.15	-9906.41757	28.403153
323.15	-5934.08368	58.662619
333.15	-2020.03422	48.894109
343.15	1909.21095	66.018538
353.15	5824.43159	23.371762

System: water + choline + 16887-00-6 + glycerol; phases: Liquid
Fixed: Mole fraction of water = 0.0
Fixed: Mole fraction of choline = 0.1665
Fixed: Mole fraction of 16887-00-6 = 0.1665
Fixed: Mole fraction of glycerol = 0.667
Fixed: Pressure, kPa = 100.0
Property: Mass density, kg/m3 (Liquid); method: N/A
Temperature, K	Mass density, kg/m3	uncertainty
313.15	1187.32001	0.527433
323.15	1180.03407	0.218147
333.15	1173.33102	0.296737
343.15	1166.23425	0.286559
353.15	1159.29319	0.221134

System: water + choline + 16887-00-6 + glycerol; phases: Liquid
Fixed: Mole fraction of water = 0.0
Fixed: Mole fraction of choline = 0.1665
Fixed: Mole fraction of 16887-00-6 = 0.1665
Fixed: Mole fraction of glycerol = 0.667
Fixed: Pressure, kPa = 100.0
Property: Molar enthalpy, kJ/mol (Liquid); method: N/A
Temperature, K	Molar enthalpy, kJ/mol	uncertainty
313.15	-5793.03611	65.563493
323.15	-1877.84772	34.002639
333.15	1922.25883	59.488804
343.15	5783.5045	29.213066
353.15	9602.26223	17.726343

System: water + choline + 16887-00-6 + glycerol; phases: Liquid
Fixed: Mole fraction of water = 0.0
Fixed: Mole fraction of glycerol = 0.667
Fixed: Mole fraction of choline = 0.167
Fixed: Mole fraction of 16887-00-6 = 0.166
Fixed: Pressure, kPa = 100.0
Property: Isobaric coefficient of expansion, 1/K (Liquid); method: N/A
Temperature, K	Isobaric coefficient of expansion, 1/K	uncertainty
313.15	0.00059559	4.5e-05
323.15	0.00059549	2.5e-05
333.15	0.0005954	7e-06
343.15	0.0005953	1.6e-05
353.15	0.0005952	3.5e-05

System: water + choline + 16887-00-6 + glycerol; phases: Liquid
Fixed: Mole fraction of water = 0.1
Fixed: Mole fraction of glycerol = 0.6
Fixed: Mole fraction of choline = 0.15
Fixed: Mole fraction of 16887-00-6 = 0.15
Fixed: Pressure, kPa = 100.0
Property: Isobaric coefficient of expansion, 1/K (Liquid); method: N/A
Temperature, K	Isobaric coefficient of expansion, 1/K	uncertainty
313.15	0.00059525	2.6e-05
323.15	0.00059562	1.2e-05
333.15	0.00059599	7e-06
343.15	0.00059636	2e-05
353.15	0.00059672	3.4e-05

System: water + choline + 16887-00-6 + glycerol; phases: Liquid
Fixed: Mole fraction of water = 0.25
Fixed: Mole fraction of glycerol = 0.5
Fixed: Mole fraction of choline = 0.125
Fixed: Mole fraction of 16887-00-6 = 0.125
Fixed: Pressure, kPa = 100.0
Property: Isobaric coefficient of expansion, 1/K (Liquid); method: N/A
Temperature, K	Isobaric coefficient of expansion, 1/K	uncertainty
313.15	0.00058418	1.4e-05
323.15	0.00059321	1e-05
333.15	0.00060224	7e-06
343.15	0.00061128	6e-06
353.15	0.00062031	8e-06

System: water + choline + 16887-00-6 + glycerol; phases: Liquid
Fixed: Mole fraction of water = 0.5
Fixed: Mole fraction of glycerol = 0.333
Fixed: Mole fraction of choline = 0.083
Fixed: Mole fraction of 16887-00-6 = 0.084
Fixed: Pressure, kPa = 100.0
Property: Isobaric coefficient of expansion, 1/K (Liquid); method: N/A
Temperature, K	Isobaric coefficient of expansion, 1/K	uncertainty
313.15	0.00062046	2.7e-05
323.15	0.00062379	1.2e-05
333.15	0.00062711	4e-06
343.15	0.00063044	1.8e-05
353.15	0.00063377	3.3e-05

System: water + choline + 16887-00-6 + glycerol; phases: Liquid
Fixed: Mole fraction of water = 0.6
Fixed: Mole fraction of glycerol = 0.267
Fixed: Mole fraction of choline = 0.067
Fixed: Mole fraction of 16887-00-6 = 0.066
Fixed: Pressure, kPa = 100.0
Property: Isobaric coefficient of expansion, 1/K (Liquid); method: N/A
Temperature, K	Isobaric coefficient of expansion, 1/K	uncertainty
313.15	0.00061178	1.9e-05
323.15	0.00062237	1.2e-05
333.15	0.00063297	7e-06
343.15	0.00064356	5e-06
353.15	0.00065416	1.1e-05

System: water + choline + 16887-00-6 + glycerol; phases: Liquid
Fixed: Mole fraction of water = 0.75
Fixed: Mole fraction of glycerol = 0.167
Fixed: Mole fraction of choline = 0.042
Fixed: Mole fraction of 16887-00-6 = 0.041
Fixed: Pressure, kPa = 100.0
Property: Isobaric coefficient of expansion, 1/K (Liquid); method: N/A
Temperature, K	Isobaric coefficient of expansion, 1/K	uncertainty
313.15	0.00061435	1.5e-05
323.15	0.00063031	7e-06
333.15	0.00064628	3e-06
343.15	0.00066224	9e-06
353.15	0.0006782	1.6e-05

System: water + choline + 16887-00-6 + glycerol; phases: Liquid
Fixed: Mole fraction of water = 0.9
Fixed: Mole fraction of glycerol = 0.067
Fixed: Mole fraction of choline = 0.017
Fixed: Mole fraction of 16887-00-6 = 0.016
Fixed: Pressure, kPa = 100.0
Property: Isobaric coefficient of expansion, 1/K (Liquid); method: N/A
Temperature, K	Isobaric coefficient of expansion, 1/K	uncertainty
313.15	0.00058958	5e-06
323.15	0.00062233	3e-06
333.15	0.00065507	1e-06
343.15	0.00068782	2e-06
353.15	0.00072057	5e-06

System: water + choline + 16887-00-6 + glycerol; phases: Liquid
Fixed: Mole fraction of water = 1.0
Fixed: Mole fraction of glycerol = 0.0
Fixed: Mole fraction of choline = 0.0
Fixed: Mole fraction of 16887-00-6 = 0.0
Fixed: Pressure, kPa = 100.0
Property: Isobaric coefficient of expansion, 1/K (Liquid); method: N/A
Temperature, K	Isobaric coefficient of expansion, 1/K	uncertainty
313.15	0.00045948	4.1e-05
323.15	0.00053815	2e-05
333.15	0.00061682	8e-06
343.15	0.00069548	2.7e-05
353.15	0.00077415	4.8e-05

System: water + choline + 16887-00-6 + glycerol; phases: Liquid
Fixed: Mole fraction of water = 0.0
Fixed: Mole fraction of glycerol = 0.667
Fixed: Mole fraction of choline = 0.167
Fixed: Mole fraction of 16887-00-6 = 0.166
Fixed: Pressure, kPa = 100.0
Property: Excess molar volume, m3/mol (Liquid); method: N/A
Temperature, K	Excess molar volume, m3/mol	uncertainty
313.15	0.0	0.0
323.15	0.0	0.0
333.15	0.0	0.0
343.15	0.0	0.0
353.15	0.0	0.0

System: water + choline + 16887-00-6 + glycerol; phases: Liquid
Fixed: Mole fraction of water = 0.1
Fixed: Mole fraction of glycerol = 0.6
Fixed: Mole fraction of choline = 0.15
Fixed: Mole fraction of 16887-00-6 = 0.15
Fixed: Pressure, kPa = 100.0
Property: Excess molar volume, m3/mol (Liquid); method: N/A
Temperature, K	Excess molar volume, m3/mol	uncertainty
313.15	-0.1695	0.036739
323.15	-0.18177	0.038786
333.15	-0.16678	0.024523
343.15	-0.17289	0.024528
353.15	-0.17862	0.020949

System: water + choline + 16887-00-6 + glycerol; phases: Liquid
Fixed: Mole fraction of water = 0.25
Fixed: Mole fraction of glycerol = 0.5
Fixed: Mole fraction of choline = 0.125
Fixed: Mole fraction of 16887-00-6 = 0.125
Fixed: Pressure, kPa = 100.0
Property: Excess molar volume, m3/mol (Liquid); method: N/A
Temperature, K	Excess molar volume, m3/mol	uncertainty
313.15	-0.37837	0.034646
323.15	-0.39131	0.015352
333.15	-0.37381	0.017889
343.15	-0.3848	0.019942
353.15	-0.37274	0.019838

System: water + choline + 16887-00-6 + glycerol; phases: Liquid
Fixed: Mole fraction of water = 0.5
Fixed: Mole fraction of glycerol = 0.333
Fixed: Mole fraction of choline = 0.083
Fixed: Mole fraction of 16887-00-6 = 0.084
Fixed: Pressure, kPa = 100.0
Property: Excess molar volume, m3/mol (Liquid); method: N/A
Temperature, K	Excess molar volume, m3/mol	uncertainty
313.15	-0.57709	0.020966
323.15	-0.56828	0.012858
333.15	-0.53804	0.016156
343.15	-0.53738	0.015863
353.15	-0.53222	0.013645

System: water + choline + 16887-00-6 + glycerol; phases: Liquid
Fixed: Mole fraction of water = 0.6
Fixed: Mole fraction of glycerol = 0.267
Fixed: Mole fraction of choline = 0.067
Fixed: Mole fraction of 16887-00-6 = 0.066
Fixed: Pressure, kPa = 100.0
Property: Excess molar volume, m3/mol (Liquid); method: N/A
Temperature, K	Excess molar volume, m3/mol	uncertainty
313.15	-0.56717	0.019535
323.15	-0.56063	0.009001
333.15	-0.53323	0.011804
343.15	-0.52789	0.010275
353.15	-0.52272	0.008253

System: water + choline + 16887-00-6 + glycerol; phases: Liquid
Fixed: Mole fraction of water = 0.75
Fixed: Mole fraction of glycerol = 0.167
Fixed: Mole fraction of choline = 0.042
Fixed: Mole fraction of 16887-00-6 = 0.041
Fixed: Pressure, kPa = 100.0
Property: Excess molar volume, m3/mol (Liquid); method: N/A
Temperature, K	Excess molar volume, m3/mol	uncertainty
313.15	-0.47021	0.011052
323.15	-0.45577	0.005209
333.15	-0.43229	0.011767
343.15	-0.42651	0.007811
353.15	-0.42032	0.006193

System: water + choline + 16887-00-6 + glycerol; phases: Liquid
Fixed: Mole fraction of water = 0.9
Fixed: Mole fraction of glycerol = 0.067
Fixed: Mole fraction of choline = 0.017
Fixed: Mole fraction of 16887-00-6 = 0.016
Fixed: Pressure, kPa = 100.0
Property: Excess molar volume, m3/mol (Liquid); method: N/A
Temperature, K	Excess molar volume, m3/mol	uncertainty
313.15	-0.26154	0.004753
323.15	-0.24818	0.002508
333.15	-0.23058	0.008368
343.15	-0.22527	0.007071
353.15	-0.22169	0.005298

System: water + choline + 16887-00-6 + glycerol; phases: Liquid
Fixed: Mole fraction of water = 1.0
Fixed: Mole fraction of glycerol = 0.0
Fixed: Mole fraction of choline = 0.0
Fixed: Mole fraction of 16887-00-6 = 0.0
Fixed: Pressure, kPa = 100.0
Property: Excess molar volume, m3/mol (Liquid); method: N/A
Temperature, K	Excess molar volume, m3/mol	uncertainty
313.15	0.0	0.0
323.15	0.0	0.0
333.15	0.0	0.0
343.15	0.0	0.0
353.15	0.0	0.0

System: water + choline + 16887-00-6 + glycerol; phases: Liquid
Fixed: Mole fraction of water = 0.0
Fixed: Mole fraction of glycerol = 0.667
Fixed: Mole fraction of choline = 0.167
Fixed: Mole fraction of 16887-00-6 = 0.166
Fixed: Pressure, kPa = 100.0
Property: Excess molar enthalpy (molar enthalpy of mixing), kJ/mol (Liquid); method: N/A
Temperature, K	Excess molar enthalpy (molar enthalpy of mixing), kJ/mol	uncertainty
313.15	0.0	0.0
323.15	0.0	0.0
333.15	0.0	0.0
343.15	0.0	0.0
353.15	0.0	0.0

System: water + choline + 16887-00-6 + glycerol; phases: Liquid
Fixed: Mole fraction of water = 0.1
Fixed: Mole fraction of glycerol = 0.6
Fixed: Mole fraction of choline = 0.15
Fixed: Mole fraction of 16887-00-6 = 0.15
Fixed: Pressure, kPa = 100.0
Property: Excess molar enthalpy (molar enthalpy of mixing), kJ/mol (Liquid); method: N/A
Temperature, K	Excess molar enthalpy (molar enthalpy of mixing), kJ/mol	uncertainty
313.15	-341.29768	71.453549
323.15	-371.20368	67.805233
333.15	-343.23745	77.010413
343.15	-361.31989	72.202824
353.15	-349.50837	29.356225

System: water + choline + 16887-00-6 + glycerol; phases: Liquid
Fixed: Mole fraction of water = 0.25
Fixed: Mole fraction of glycerol = 0.5
Fixed: Mole fraction of choline = 0.125
Fixed: Mole fraction of 16887-00-6 = 0.125
Fixed: Pressure, kPa = 100.0
Property: Excess molar enthalpy (molar enthalpy of mixing), kJ/mol (Liquid); method: N/A
Temperature, K	Excess molar enthalpy (molar enthalpy of mixing), kJ/mol	uncertainty
313.15	-760.02016	70.170264
323.15	-804.34853	44.263382
333.15	-782.78743	51.132173
343.15	-795.1082	34.727411
353.15	-772.07593	32.864884

System: water + choline + 16887-00-6 + glycerol; phases: Liquid
Fixed: Mole fraction of water = 0.5
Fixed: Mole fraction of glycerol = 0.333
Fixed: Mole fraction of choline = 0.083
Fixed: Mole fraction of 16887-00-6 = 0.084
Fixed: Pressure, kPa = 100.0
Property: Excess molar enthalpy (molar enthalpy of mixing), kJ/mol (Liquid); method: N/A
Temperature, K	Excess molar enthalpy (molar enthalpy of mixing), kJ/mol	uncertainty
313.15	-1153.66872	39.747453
323.15	-1173.0268	24.494793
333.15	-1123.76459	35.478502
343.15	-1142.32964	32.706209
353.15	-1113.15453	29.614481

System: water + choline + 16887-00-6 + glycerol; phases: Liquid
Fixed: Mole fraction of water = 0.6
Fixed: Mole fraction of glycerol = 0.267
Fixed: Mole fraction of choline = 0.067
Fixed: Mole fraction of 16887-00-6 = 0.066
Fixed: Pressure, kPa = 100.0
Property: Excess molar enthalpy (molar enthalpy of mixing), kJ/mol (Liquid); method: N/A
Temperature, K	Excess molar enthalpy (molar enthalpy of mixing), kJ/mol	uncertainty
313.15	-1111.51226	52.624956
323.15	-1134.31919	20.918177
333.15	-1098.71271	27.435483
343.15	-1112.31586	15.311123
353.15	-1087.67396	14.440392

System: water + choline + 16887-00-6 + glycerol; phases: Liquid
Fixed: Mole fraction of water = 0.75
Fixed: Mole fraction of glycerol = 0.167
Fixed: Mole fraction of choline = 0.042
Fixed: Mole fraction of 16887-00-6 = 0.041
Fixed: Pressure, kPa = 100.0
Property: Excess molar enthalpy (molar enthalpy of mixing), kJ/mol (Liquid); method: N/A
Temperature, K	Excess molar enthalpy (molar enthalpy of mixing), kJ/mol	uncertainty
313.15	-820.46685	25.622617
323.15	-848.21752	11.077681
333.15	-835.14256	20.788812
343.15	-845.83196	14.304906
353.15	-827.83579	10.837849

System: water + choline + 16887-00-6 + glycerol; phases: Liquid
Fixed: Mole fraction of water = 0.9
Fixed: Mole fraction of glycerol = 0.067
Fixed: Mole fraction of choline = 0.017
Fixed: Mole fraction of 16887-00-6 = 0.016
Fixed: Pressure, kPa = 100.0
Property: Excess molar enthalpy (molar enthalpy of mixing), kJ/mol (Liquid); method: N/A
Temperature, K	Excess molar enthalpy (molar enthalpy of mixing), kJ/mol	uncertainty
313.15	-269.616	8.8677
323.15	-283.89605	6.117843
333.15	-283.87844	11.702062
343.15	-296.40929	11.731068
353.15	-291.56723	10.896536

System: water + choline + 16887-00-6 + glycerol; phases: Liquid
Fixed: Mole fraction of water = 1.0
Fixed: Mole fraction of glycerol = 0.0
Fixed: Mole fraction of choline = 0.0
Fixed: Mole fraction of 16887-00-6 = 0.0
Fixed: Pressure, kPa = 100.0
Property: Excess molar enthalpy (molar enthalpy of mixing), kJ/mol (Liquid); method: N/A
Temperature, K	Excess molar enthalpy (molar enthalpy of mixing), kJ/mol	uncertainty
313.15	0.0	0.0
323.15	0.0	0.0
333.15	0.0	0.0
343.15	0.0	0.0
353.15	0.0	0.0

System: choline + 16887-00-6 + glycerol; phases: Liquid
Fixed: Mole fraction of water = 0.0
Fixed: Mole fraction of glycerol = 0.667
Fixed: Mole fraction of choline = 0.167
Fixed: Mole fraction of 16887-00-6 = 0.166
Fixed: Pressure, kPa = 100.0
Property: Self diffusion coefficient, m2/s of choline (Liquid); method: N/A
Temperature, K	Self diffusion coefficient, m2/s of choline	uncertainty
313.15	5e-08	0.0
323.15	8e-08	0.0
333.15	1.7e-07	0.0
343.15	2.3e-07	0.0
353.15	3.8e-07	0.0

System: choline + 16887-00-6 + glycerol; phases: Liquid
Fixed: Mole fraction of water = 0.0
Fixed: Mole fraction of glycerol = 0.667
Fixed: Mole fraction of choline = 0.167
Fixed: Mole fraction of 16887-00-6 = 0.166
Fixed: Pressure, kPa = 100.0
Property: Self diffusion coefficient, m2/s of 16887-00-6 (Liquid); method: N/A
Temperature, K	Self diffusion coefficient, m2/s of 16887-00-6	uncertainty
313.15	7e-08	0.0
323.15	1e-07	0.0
333.15	2.2e-07	0.0
343.15	3.5e-07	0.0
353.15	5.3e-07	0.0

System: choline + 16887-00-6 + glycerol; phases: Liquid
Fixed: Mole fraction of water = 0.0
Fixed: Mole fraction of glycerol = 0.667
Fixed: Mole fraction of choline = 0.167
Fixed: Mole fraction of 16887-00-6 = 0.166
Fixed: Pressure, kPa = 100.0
Property: Self diffusion coefficient, m2/s of glycerol (Liquid); method: N/A
Temperature, K	Self diffusion coefficient, m2/s of glycerol	uncertainty
313.15	8e-08	0.0
323.15	1.2e-07	0.0
333.15	2.3e-07	0.0
343.15	3.7e-07	0.0
353.15	5.8e-07	0.0

System: water + choline + 16887-00-6 + glycerol; phases: Liquid
Fixed: Mole fraction of water = 0.1
Fixed: Mole fraction of glycerol = 0.6
Fixed: Mole fraction of choline = 0.15
Fixed: Mole fraction of 16887-00-6 = 0.15
Fixed: Pressure, kPa = 100.0
Property: Self diffusion coefficient, m2/s of water (Liquid); method: N/A
Temperature, K	Self diffusion coefficient, m2/s of water	uncertainty
313.15	4.2e-07	0.0
323.15	7.8e-07	0.0
333.15	1.13e-06	0.0
343.15	1.95e-06	0.0
353.15	2.29e-06	0.0

System: water + choline + 16887-00-6 + glycerol; phases: Liquid
Fixed: Mole fraction of water = 0.1
Fixed: Mole fraction of glycerol = 0.6
Fixed: Mole fraction of choline = 0.15
Fixed: Mole fraction of 16887-00-6 = 0.15
Fixed: Pressure, kPa = 100.0
Property: Self diffusion coefficient, m2/s of choline (Liquid); method: N/A
Temperature, K	Self diffusion coefficient, m2/s of choline	uncertainty
313.15	8e-08	0.0
323.15	1.6e-07	0.0
333.15	2.3e-07	0.0
343.15	3.3e-07	0.0
353.15	3.7e-07	0.0

System: water + choline + 16887-00-6 + glycerol; phases: Liquid
Fixed: Mole fraction of water = 0.1
Fixed: Mole fraction of glycerol = 0.6
Fixed: Mole fraction of choline = 0.15
Fixed: Mole fraction of 16887-00-6 = 0.15
Fixed: Pressure, kPa = 100.0
Property: Self diffusion coefficient, m2/s of 16887-00-6 (Liquid); method: N/A
Temperature, K	Self diffusion coefficient, m2/s of 16887-00-6	uncertainty
313.15	1.2e-07	0.0
323.15	2.3e-07	0.0
333.15	3.3e-07	0.0
343.15	4.6e-07	0.0
353.15	6.4e-07	0.0

System: water + choline + 16887-00-6 + glycerol; phases: Liquid
Fixed: Mole fraction of water = 0.1
Fixed: Mole fraction of glycerol = 0.6
Fixed: Mole fraction of choline = 0.15
Fixed: Mole fraction of 16887-00-6 = 0.15
Fixed: Pressure, kPa = 100.0
Property: Self diffusion coefficient, m2/s of glycerol (Liquid); method: N/A
Temperature, K	Self diffusion coefficient, m2/s of glycerol	uncertainty
313.15	1.2e-07	0.0
323.15	2.1e-07	0.0
333.15	3e-07	0.0
343.15	4.5e-07	0.0
353.15	5.7e-07	0.0

System: water + choline + 16887-00-6 + glycerol; phases: Liquid
Fixed: Mole fraction of water = 0.25
Fixed: Mole fraction of glycerol = 0.5
Fixed: Mole fraction of choline = 0.125
Fixed: Mole fraction of 16887-00-6 = 0.125
Fixed: Pressure, kPa = 100.0
Property: Self diffusion coefficient, m2/s of water (Liquid); method: N/A
Temperature, K	Self diffusion coefficient, m2/s of water	uncertainty
313.15	7.9e-07	0.0
323.15	1.2e-06	0.0
333.15	1.76e-06	0.0
343.15	2.66e-06	0.0
353.15	3.46e-06	0.0

System: water + choline + 16887-00-6 + glycerol; phases: Liquid
Fixed: Mole fraction of water = 0.25
Fixed: Mole fraction of glycerol = 0.5
Fixed: Mole fraction of choline = 0.125
Fixed: Mole fraction of 16887-00-6 = 0.125
Fixed: Pressure, kPa = 100.0
Property: Self diffusion coefficient, m2/s of choline (Liquid); method: N/A
Temperature, K	Self diffusion coefficient, m2/s of choline	uncertainty
313.15	1.4e-07	0.0
323.15	2.3e-07	0.0
333.15	3.6e-07	0.0
343.15	5.8e-07	0.0
353.15	7.3e-07	0.0

System: water + choline + 16887-00-6 + glycerol; phases: Liquid
Fixed: Mole fraction of water = 0.25
Fixed: Mole fraction of glycerol = 0.5
Fixed: Mole fraction of choline = 0.125
Fixed: Mole fraction of 16887-00-6 = 0.125
Fixed: Pressure, kPa = 100.0
Property: Self diffusion coefficient, m2/s of 16887-00-6 (Liquid); method: N/A
Temperature, K	Self diffusion coefficient, m2/s of 16887-00-6	uncertainty
313.15	2.2e-07	0.0
323.15	3.9e-07	0.0
333.15	6e-07	0.0
343.15	9.4e-07	0.0
353.15	1.19e-06	0.0

System: water + choline + 16887-00-6 + glycerol; phases: Liquid
Fixed: Mole fraction of water = 0.25
Fixed: Mole fraction of glycerol = 0.5
Fixed: Mole fraction of choline = 0.125
Fixed: Mole fraction of 16887-00-6 = 0.125
Fixed: Pressure, kPa = 100.0
Property: Self diffusion coefficient, m2/s of glycerol (Liquid); method: N/A
Temperature, K	Self diffusion coefficient, m2/s of glycerol	uncertainty
313.15	1.8e-07	0.0
323.15	3.3e-07	0.0
333.15	4.9e-07	0.0
343.15	8.3e-07	0.0
353.15	1.01e-06	0.0

System: water + choline + 16887-00-6 + glycerol; phases: Liquid
Fixed: Mole fraction of water = 0.5
Fixed: Mole fraction of glycerol = 0.333
Fixed: Mole fraction of choline = 0.083
Fixed: Mole fraction of 16887-00-6 = 0.084
Fixed: Pressure, kPa = 100.0
Property: Self diffusion coefficient, m2/s of water (Liquid); method: N/A
Temperature, K	Self diffusion coefficient, m2/s of water	uncertainty
313.15	1.82e-06	0.0
323.15	3.06e-06	0.0
333.15	3.7e-06	0.0
343.15	5.15e-06	0.0
353.15	6.61e-06	0.0

System: water + choline + 16887-00-6 + glycerol; phases: Liquid
Fixed: Mole fraction of water = 0.5
Fixed: Mole fraction of glycerol = 0.333
Fixed: Mole fraction of choline = 0.083
Fixed: Mole fraction of 16887-00-6 = 0.084
Fixed: Pressure, kPa = 100.0
Property: Self diffusion coefficient, m2/s of choline (Liquid); method: N/A
Temperature, K	Self diffusion coefficient, m2/s of choline	uncertainty
313.15	3.9e-07	0.0
323.15	7.8e-07	0.0
333.15	8.3e-07	0.0
343.15	1.34e-06	0.0
353.15	1.82e-06	0.0

System: water + choline + 16887-00-6 + glycerol; phases: Liquid
Fixed: Mole fraction of water = 0.5
Fixed: Mole fraction of glycerol = 0.333
Fixed: Mole fraction of choline = 0.083
Fixed: Mole fraction of 16887-00-6 = 0.084
Fixed: Pressure, kPa = 100.0
Property: Self diffusion coefficient, m2/s of 16887-00-6 (Liquid); method: N/A
Temperature, K	Self diffusion coefficient, m2/s of 16887-00-6	uncertainty
313.15	6.8e-07	0.0
323.15	1.34e-06	0.0
333.15	1.46e-06	0.0
343.15	2.28e-06	0.0
353.15	3.14e-06	0.0

System: water + choline + 16887-00-6 + glycerol; phases: Liquid
Fixed: Mole fraction of water = 0.5
Fixed: Mole fraction of glycerol = 0.333
Fixed: Mole fraction of choline = 0.083
Fixed: Mole fraction of 16887-00-6 = 0.084
Fixed: Pressure, kPa = 100.0
Property: Self diffusion coefficient, m2/s of glycerol (Liquid); method: N/A
Temperature, K	Self diffusion coefficient, m2/s of glycerol	uncertainty
313.15	4.6e-07	0.0
323.15	1.03e-06	0.0
333.15	1.09e-06	0.0
343.15	1.63e-06	0.0
353.15	2.14e-06	0.0

System: water + choline + 16887-00-6 + glycerol; phases: Liquid
Fixed: Mole fraction of water = 0.6
Fixed: Mole fraction of glycerol = 0.267
Fixed: Mole fraction of choline = 0.067
Fixed: Mole fraction of 16887-00-6 = 0.066
Fixed: Pressure, kPa = 100.0
Property: Self diffusion coefficient, m2/s of water (Liquid); method: N/A
Temperature, K	Self diffusion coefficient, m2/s of water	uncertainty
313.15	3.2e-06	0.0
323.15	4.22e-06	0.0
333.15	5.8e-06	1e-06
343.15	7.22e-06	0.0
353.15	9.68e-06	1e-06

System: water + choline + 16887-00-6 + glycerol; phases: Liquid
Fixed: Mole fraction of water = 0.6
Fixed: Mole fraction of glycerol = 0.267
Fixed: Mole fraction of choline = 0.067
Fixed: Mole fraction of 16887-00-6 = 0.066
Fixed: Pressure, kPa = 100.0
Property: Self diffusion coefficient, m2/s of choline (Liquid); method: N/A
Temperature, K	Self diffusion coefficient, m2/s of choline	uncertainty
313.15	8.2e-07	0.0
323.15	1.11e-06	0.0
333.15	1.56e-06	1e-06
343.15	2.04e-06	0.0
353.15	2.57e-06	0.0

System: water + choline + 16887-00-6 + glycerol; phases: Liquid
Fixed: Mole fraction of water = 0.6
Fixed: Mole fraction of glycerol = 0.267
Fixed: Mole fraction of choline = 0.067
Fixed: Mole fraction of 16887-00-6 = 0.066
Fixed: Pressure, kPa = 100.0
Property: Self diffusion coefficient, m2/s of 16887-00-6 (Liquid); method: N/A
Temperature, K	Self diffusion coefficient, m2/s of 16887-00-6	uncertainty
313.15	1.38e-06	0.0
323.15	1.7e-06	0.0
333.15	2.48e-06	0.0
343.15	3.37e-06	0.0
353.15	4.48e-06	0.0

System: water + choline + 16887-00-6 + glycerol; phases: Liquid
Fixed: Mole fraction of water = 0.6
Fixed: Mole fraction of glycerol = 0.267
Fixed: Mole fraction of choline = 0.067
Fixed: Mole fraction of 16887-00-6 = 0.066
Fixed: Pressure, kPa = 100.0
Property: Self diffusion coefficient, m2/s of glycerol (Liquid); method: N/A
Temperature, K	Self diffusion coefficient, m2/s of glycerol	uncertainty
313.15	9.3e-07	0.0
323.15	1.36e-06	0.0
333.15	1.79e-06	1e-06
343.15	2.26e-06	0.0
353.15	3.22e-06	0.0

System: water + choline + 16887-00-6 + glycerol; phases: Liquid
Fixed: Mole fraction of water = 0.75
Fixed: Mole fraction of glycerol = 0.167
Fixed: Mole fraction of choline = 0.042
Fixed: Mole fraction of 16887-00-6 = 0.041
Fixed: Pressure, kPa = 100.0
Property: Self diffusion coefficient, m2/s of water (Liquid); method: N/A
Temperature, K	Self diffusion coefficient, m2/s of water	uncertainty
313.15	7.12e-06	1e-06
323.15	9.07e-06	1e-06
333.15	1.147e-05	0.0
343.15	1.466e-05	0.0
353.15	1.735e-05	1e-06

System: water + choline + 16887-00-6 + glycerol; phases: Liquid
Fixed: Mole fraction of water = 0.75
Fixed: Mole fraction of glycerol = 0.167
Fixed: Mole fraction of choline = 0.042
Fixed: Mole fraction of 16887-00-6 = 0.041
Fixed: Pressure, kPa = 100.0
Property: Self diffusion coefficient, m2/s of choline (Liquid); method: N/A
Temperature, K	Self diffusion coefficient, m2/s of choline	uncertainty
313.15	2.07e-06	1e-06
323.15	2.81e-06	1e-06
333.15	3.92e-06	1e-06
343.15	5.09e-06	1e-06
353.15	5.51e-06	0.0

System: water + choline + 16887-00-6 + glycerol; phases: Liquid
Fixed: Mole fraction of water = 0.75
Fixed: Mole fraction of glycerol = 0.167
Fixed: Mole fraction of choline = 0.042
Fixed: Mole fraction of 16887-00-6 = 0.041
Fixed: Pressure, kPa = 100.0
Property: Self diffusion coefficient, m2/s of 16887-00-6 (Liquid); method: N/A
Temperature, K	Self diffusion coefficient, m2/s of 16887-00-6	uncertainty
313.15	3.3e-06	0.0
323.15	4.81e-06	1e-06
333.15	5.68e-06	1e-06
343.15	8.27e-06	1e-06
353.15	9.45e-06	2e-06

System: water + choline + 16887-00-6 + glycerol; phases: Liquid
Fixed: Mole fraction of water = 0.75
Fixed: Mole fraction of glycerol = 0.167
Fixed: Mole fraction of choline = 0.042
Fixed: Mole fraction of 16887-00-6 = 0.041
Fixed: Pressure, kPa = 100.0
Property: Self diffusion coefficient, m2/s of glycerol (Liquid); method: N/A
Temperature, K	Self diffusion coefficient, m2/s of glycerol	uncertainty
313.15	2.12e-06	0.0
323.15	3.1e-06	1e-06
333.15	4.12e-06	1e-06
343.15	5.35e-06	0.0
353.15	6.05e-06	1e-06

System: water + choline + 16887-00-6 + glycerol; phases: Liquid
Fixed: Mole fraction of water = 0.9
Fixed: Mole fraction of glycerol = 0.067
Fixed: Mole fraction of choline = 0.017
Fixed: Mole fraction of 16887-00-6 = 0.016
Fixed: Pressure, kPa = 100.0
Property: Self diffusion coefficient, m2/s of water (Liquid); method: N/A
Temperature, K	Self diffusion coefficient, m2/s of water	uncertainty
313.15	1.782e-05	1e-06
323.15	2.18e-05	1e-06
333.15	2.642e-05	1e-06
343.15	3.14e-05	1e-06
353.15	3.64e-05	2e-06

System: water + choline + 16887-00-6 + glycerol; phases: Liquid
Fixed: Mole fraction of water = 0.9
Fixed: Mole fraction of glycerol = 0.067
Fixed: Mole fraction of choline = 0.017
Fixed: Mole fraction of 16887-00-6 = 0.016
Fixed: Pressure, kPa = 100.0
Property: Self diffusion coefficient, m2/s of choline (Liquid); method: N/A
Temperature, K	Self diffusion coefficient, m2/s of choline	uncertainty
313.15	6.47e-06	1e-06
323.15	8.03e-06	0.0
333.15	9.79e-06	0.0
343.15	1.23e-05	2e-06
353.15	1.343e-05	1e-06

System: water + choline + 16887-00-6 + glycerol; phases: Liquid
Fixed: Mole fraction of water = 0.9
Fixed: Mole fraction of glycerol = 0.067
Fixed: Mole fraction of choline = 0.017
Fixed: Mole fraction of 16887-00-6 = 0.016
Fixed: Pressure, kPa = 100.0
Property: Self diffusion coefficient, m2/s of 16887-00-6 (Liquid); method: N/A
Temperature, K	Self diffusion coefficient, m2/s of 16887-00-6	uncertainty
313.15	1.105e-05	1e-06
323.15	1.4e-05	0.0
333.15	1.645e-05	1e-06
343.15	1.995e-05	5e-06
353.15	2.203e-05	2e-06

System: water + choline + 16887-00-6 + glycerol; phases: Liquid
Fixed: Mole fraction of water = 0.9
Fixed: Mole fraction of glycerol = 0.067
Fixed: Mole fraction of choline = 0.017
Fixed: Mole fraction of 16887-00-6 = 0.016
Fixed: Pressure, kPa = 100.0
Property: Self diffusion coefficient, m2/s of glycerol (Liquid); method: N/A
Temperature, K	Self diffusion coefficient, m2/s of glycerol	uncertainty
313.15	6.85e-06	1e-06
323.15	8.59e-06	1e-06
333.15	1.031e-05	1e-06
343.15	1.278e-05	1e-06
353.15	1.549e-05	1e-06

System: water; phases: Liquid
Fixed: Mole fraction of water = 1.0
Fixed: Mole fraction of glycerol = 0.0
Fixed: Mole fraction of choline = 0.0
Fixed: Mole fraction of 16887-00-6 = 0.0
Fixed: Pressure, kPa = 100.0
Property: Self diffusion coefficient, m2/s of water (Liquid); method: N/A
Temperature, K	Self diffusion coefficient, m2/s of water	uncertainty
313.15	3.711e-05	1e-06
323.15	4.317e-05	1e-06
333.15	5.163e-05	1e-06
343.15	6.06e-05	1e-06
353.15	6.872e-05	6e-06

System: water + choline + 16887-00-6 + glycerol; phases: Liquid
Fixed: Mole fraction of water = 0.0
Fixed: Mole fraction of glycerol = 0.667
Fixed: Mole fraction of choline = 0.167
Fixed: Mole fraction of 16887-00-6 = 0.166
Fixed: Pressure, kPa = 100.0
Property: Viscosity, Pas (Liquid); method: N/A
Temperature, K	Viscosity, Pas	uncertainty
313.15	0.18166308	0.063329
323.15	0.12014962	0.014113
333.15	0.0623668	0.005102
343.15	0.04291564	0.003059
353.15	0.03107626	0.000876

System: water + choline + 16887-00-6 + glycerol; phases: Liquid
Fixed: Mole fraction of water = 0.1
Fixed: Mole fraction of glycerol = 0.6
Fixed: Mole fraction of choline = 0.15
Fixed: Mole fraction of 16887-00-6 = 0.15
Fixed: Pressure, kPa = 100.0
Property: Viscosity, Pas (Liquid); method: N/A
Temperature, K	Viscosity, Pas	uncertainty
313.15	0.12135458	0.007377
323.15	0.07190539	0.002195
333.15	0.04976484	0.001062
343.15	0.03034953	0.001832
353.15	0.02384541	0.002086

System: water + choline + 16887-00-6 + glycerol; phases: Liquid
Fixed: Mole fraction of water = 0.25
Fixed: Mole fraction of glycerol = 0.5
Fixed: Mole fraction of choline = 0.125
Fixed: Mole fraction of 16887-00-6 = 0.125
Fixed: Pressure, kPa = 100.0
Property: Viscosity, Pas (Liquid); method: N/A
Temperature, K	Viscosity, Pas	uncertainty
313.15	0.06909015	0.007849
323.15	0.04147632	0.001286
333.15	0.02670433	0.000369
343.15	0.01905819	0.000245
353.15	0.01403957	0.000475

System: water + choline + 16887-00-6 + glycerol; phases: Liquid
Fixed: Mole fraction of water = 0.5
Fixed: Mole fraction of glycerol = 0.333
Fixed: Mole fraction of choline = 0.083
Fixed: Mole fraction of 16887-00-6 = 0.084
Fixed: Pressure, kPa = 100.0
Property: Viscosity, Pas (Liquid); method: N/A
Temperature, K	Viscosity, Pas	uncertainty
313.15	0.02364807	0.001819
323.15	0.01354868	0.00014
333.15	0.01092322	0.000402
343.15	0.00791383	0.000116
353.15	0.00621266	0.000146

System: water + choline + 16887-00-6 + glycerol; phases: Liquid
Fixed: Mole fraction of water = 0.6
Fixed: Mole fraction of glycerol = 0.267
Fixed: Mole fraction of choline = 0.067
Fixed: Mole fraction of 16887-00-6 = 0.066
Fixed: Pressure, kPa = 100.0
Property: Viscosity, Pas (Liquid); method: N/A
Temperature, K	Viscosity, Pas	uncertainty
313.15	0.01226052	0.000387
323.15	0.0088265	0.000274
333.15	0.00678961	7.6e-05
343.15	0.00515982	0.000115
353.15	0.00396643	7.7e-05

System: water + choline + 16887-00-6 + glycerol; phases: Liquid
Fixed: Mole fraction of water = 0.75
Fixed: Mole fraction of glycerol = 0.167
Fixed: Mole fraction of choline = 0.042
Fixed: Mole fraction of 16887-00-6 = 0.041
Fixed: Pressure, kPa = 100.0
Property: Viscosity, Pas (Liquid); method: N/A
Temperature, K	Viscosity, Pas	uncertainty
313.15	0.00437399	0.000162
323.15	0.00328911	5.3e-05
333.15	0.00271281	6.5e-05
343.15	0.00213766	6.3e-05
353.15	0.00185374	2.2e-05

System: water + choline + 16887-00-6 + glycerol; phases: Liquid
Fixed: Mole fraction of water = 0.9
Fixed: Mole fraction of glycerol = 0.067
Fixed: Mole fraction of choline = 0.017
Fixed: Mole fraction of 16887-00-6 = 0.016
Fixed: Pressure, kPa = 100.0
Property: Viscosity, Pas (Liquid); method: N/A
Temperature, K	Viscosity, Pas	uncertainty
313.15	0.00127401	1.9e-05
323.15	0.00104621	1.1e-05
333.15	0.00089593	1.9e-05
343.15	0.00077743	9e-06
353.15	0.00066745	1e-05

System: water + choline + 16887-00-6 + glycerol; phases: Liquid
Fixed: Mole fraction of water = 1.0
Fixed: Mole fraction of glycerol = 0.0
Fixed: Mole fraction of choline = 0.0
Fixed: Mole fraction of 16887-00-6 = 0.0
Fixed: Pressure, kPa = 100.0
Property: Viscosity, Pas (Liquid); method: N/A
Temperature, K	Viscosity, Pas	uncertainty
313.15	0.00055664	5e-06
323.15	0.00047295	4e-06
333.15	0.00041303	2e-06
343.15	0.00035853	1e-06
353.15	0.00031783	3e-06

System: choline + 16887-00-6 + glycerol + carbon dioxide; phases: Liquid
Fixed: Mole fraction of water = 0.0
Fixed: Mole fraction of glycerol = 0.667
Fixed: Mole fraction of choline = 0.167
Fixed: Mole fraction of 16887-00-6 = 0.166
Fixed: Pressure, kPa = 100.0
Property: Henry's Law constant (amount concentration scale), kPadm3/mol of carbon dioxide (Liquid); method: N/A
Temperature, K	Henry's Law constant (amount concentration scale), kPadm3/mol of carbon dioxide	uncertainty
313.15	5019.53159088	2250.965176

System: choline + 16887-00-6 + glycerol + 7782-44-7; phases: Liquid
Fixed: Mole fraction of water = 0.0
Fixed: Mole fraction of glycerol = 0.667
Fixed: Mole fraction of choline = 0.167
Fixed: Mole fraction of 16887-00-6 = 0.166
Fixed: Pressure, kPa = 100.0
Property: Henry's Law constant (amount concentration scale), kPadm3/mol of 7782-44-7 (Liquid); method: N/A
Temperature, K	Henry's Law constant (amount concentration scale), kPadm3/mol of 7782-44-7	uncertainty
313.15	226230.94723455	640.196087

System: water + choline + 16887-00-6 + glycerol + carbon dioxide; phases: Liquid
Fixed: Mole fraction of water = 0.1
Fixed: Mole fraction of glycerol = 0.6
Fixed: Mole fraction of choline = 0.15
Fixed: Mole fraction of 16887-00-6 = 0.15
Fixed: Pressure, kPa = 100.0
Property: Henry's Law constant (amount concentration scale), kPadm3/mol of carbon dioxide (Liquid); method: N/A
Temperature, K	Henry's Law constant (amount concentration scale), kPadm3/mol of carbon dioxide	uncertainty
313.15	5112.01585662	345.293068

System: water + choline + 16887-00-6 + glycerol + 7782-44-7; phases: Liquid
Fixed: Mole fraction of water = 0.1
Fixed: Mole fraction of glycerol = 0.6
Fixed: Mole fraction of choline = 0.15
Fixed: Mole fraction of 16887-00-6 = 0.15
Fixed: Pressure, kPa = 100.0
Property: Henry's Law constant (amount concentration scale), kPadm3/mol of 7782-44-7 (Liquid); method: N/A
Temperature, K	Henry's Law constant (amount concentration scale), kPadm3/mol of 7782-44-7	uncertainty
313.15	240452.6241218	680.945062

System: water + choline + 16887-00-6 + glycerol + carbon dioxide; phases: Liquid
Fixed: Mole fraction of water = 0.25
Fixed: Mole fraction of glycerol = 0.5
Fixed: Mole fraction of choline = 0.125
Fixed: Mole fraction of 16887-00-6 = 0.125
Fixed: Pressure, kPa = 100.0
Property: Henry's Law constant (amount concentration scale), kPadm3/mol of carbon dioxide (Liquid); method: N/A
Temperature, K	Henry's Law constant (amount concentration scale), kPadm3/mol of carbon dioxide	uncertainty
313.15	6253.7578458	442.824185

System: water + choline + 16887-00-6 + glycerol + 7782-44-7; phases: Liquid
Fixed: Mole fraction of water = 0.25
Fixed: Mole fraction of glycerol = 0.5
Fixed: Mole fraction of choline = 0.125
Fixed: Mole fraction of 16887-00-6 = 0.125
Fixed: Pressure, kPa = 100.0
Property: Henry's Law constant (amount concentration scale), kPadm3/mol of 7782-44-7 (Liquid); method: N/A
Temperature, K	Henry's Law constant (amount concentration scale), kPadm3/mol of 7782-44-7	uncertainty
313.15	246631.26662799	694.513634

System: water + choline + 16887-00-6 + glycerol + carbon dioxide; phases: Liquid
Fixed: Mole fraction of water = 0.5
Fixed: Mole fraction of glycerol = 0.333
Fixed: Mole fraction of choline = 0.083
Fixed: Mole fraction of 16887-00-6 = 0.084
Fixed: Pressure, kPa = 100.0
Property: Henry's Law constant (amount concentration scale), kPadm3/mol of carbon dioxide (Liquid); method: N/A
Temperature, K	Henry's Law constant (amount concentration scale), kPadm3/mol of carbon dioxide	uncertainty
313.15	7532.24335474	438.275135

System: water + choline + 16887-00-6 + glycerol + 7782-44-7; phases: Liquid
Fixed: Mole fraction of water = 0.5
Fixed: Mole fraction of glycerol = 0.333
Fixed: Mole fraction of choline = 0.083
Fixed: Mole fraction of 16887-00-6 = 0.084
Fixed: Pressure, kPa = 100.0
Property: Henry's Law constant (amount concentration scale), kPadm3/mol of 7782-44-7 (Liquid); method: N/A
Temperature, K	Henry's Law constant (amount concentration scale), kPadm3/mol of 7782-44-7	uncertainty
313.15	250905.08769377	973.649118

System: water + choline + 16887-00-6 + glycerol + carbon dioxide; phases: Liquid
Fixed: Mole fraction of water = 0.6
Fixed: Mole fraction of glycerol = 0.267
Fixed: Mole fraction of choline = 0.067
Fixed: Mole fraction of 16887-00-6 = 0.066
Fixed: Pressure, kPa = 100.0
Property: Henry's Law constant (amount concentration scale), kPadm3/mol of carbon dioxide (Liquid); method: N/A
Temperature, K	Henry's Law constant (amount concentration scale), kPadm3/mol of carbon dioxide	uncertainty
313.15	7215.44183135	359.900672

System: water + choline + 16887-00-6 + glycerol + 7782-44-7; phases: Liquid
Fixed: Mole fraction of water = 0.6
Fixed: Mole fraction of glycerol = 0.267
Fixed: Mole fraction of choline = 0.067
Fixed: Mole fraction of 16887-00-6 = 0.066
Fixed: Pressure, kPa = 100.0
Property: Henry's Law constant (amount concentration scale), kPadm3/mol of 7782-44-7 (Liquid); method: N/A
Temperature, K	Henry's Law constant (amount concentration scale), kPadm3/mol of 7782-44-7	uncertainty
313.15	236330.79238421	906.598279

System: water + choline + 16887-00-6 + glycerol + carbon dioxide; phases: Liquid
Fixed: Mole fraction of water = 0.75
Fixed: Mole fraction of glycerol = 0.167
Fixed: Mole fraction of choline = 0.042
Fixed: Mole fraction of 16887-00-6 = 0.041
Fixed: Pressure, kPa = 100.0
Property: Henry's Law constant (amount concentration scale), kPadm3/mol of carbon dioxide (Liquid); method: N/A
Temperature, K	Henry's Law constant (amount concentration scale), kPadm3/mol of carbon dioxide	uncertainty
313.15	7434.29929003	257.743151

System: water + choline + 16887-00-6 + glycerol + 7782-44-7; phases: Liquid
Fixed: Mole fraction of water = 0.75
Fixed: Mole fraction of glycerol = 0.167
Fixed: Mole fraction of choline = 0.042
Fixed: Mole fraction of 16887-00-6 = 0.041
Fixed: Pressure, kPa = 100.0
Property: Henry's Law constant (amount concentration scale), kPadm3/mol of 7782-44-7 (Liquid); method: N/A
Temperature, K	Henry's Law constant (amount concentration scale), kPadm3/mol of 7782-44-7	uncertainty
313.15	195862.86455391	718.802915

System: water + choline + 16887-00-6 + glycerol + carbon dioxide; phases: Liquid
Fixed: Mole fraction of water = 0.9
Fixed: Mole fraction of glycerol = 0.067
Fixed: Mole fraction of choline = 0.017
Fixed: Mole fraction of 16887-00-6 = 0.016
Fixed: Pressure, kPa = 100.0
Property: Henry's Law constant (amount concentration scale), kPadm3/mol of carbon dioxide (Liquid); method: N/A
Temperature, K	Henry's Law constant (amount concentration scale), kPadm3/mol of carbon dioxide	uncertainty
313.15	6794.79273287	57.920518

System: water + choline + 16887-00-6 + glycerol + 7782-44-7; phases: Liquid
Fixed: Mole fraction of water = 0.9
Fixed: Mole fraction of glycerol = 0.067
Fixed: Mole fraction of choline = 0.017
Fixed: Mole fraction of 16887-00-6 = 0.016
Fixed: Pressure, kPa = 100.0
Property: Henry's Law constant (amount concentration scale), kPadm3/mol of 7782-44-7 (Liquid); method: N/A
Temperature, K	Henry's Law constant (amount concentration scale), kPadm3/mol of 7782-44-7	uncertainty
313.15	145417.90748558	496.790843

System: water + carbon dioxide; phases: Liquid
Fixed: Mole fraction of water = 1.0
Fixed: Mole fraction of glycerol = 0.0
Fixed: Mole fraction of choline = 0.0
Fixed: Mole fraction of 16887-00-6 = 0.0
Fixed: Pressure, kPa = 100.0
Property: Henry's Law constant (amount concentration scale), kPadm3/mol of carbon dioxide (Liquid); method: N/A
Temperature, K	Henry's Law constant (amount concentration scale), kPadm3/mol of carbon dioxide	uncertainty
313.15	6688.79372496	119.970649

System: water + 7782-44-7; phases: Liquid
Fixed: Mole fraction of water = 1.0
Fixed: Mole fraction of glycerol = 0.0
Fixed: Mole fraction of choline = 0.0
Fixed: Mole fraction of 16887-00-6 = 0.0
Fixed: Pressure, kPa = 100.0
Property: Henry's Law constant (amount concentration scale), kPadm3/mol of 7782-44-7 (Liquid); method: N/A
Temperature, K	Henry's Law constant (amount concentration scale), kPadm3/mol of 7782-44-7	uncertainty
313.15	110203.16870905	342.516386
